LTspice 24.0.9 for Windows
Circuit: * C:\Users\user\Desktop\Analog Project\Equilizer.asc
Start Time: Wed Oct  9 12:20:17 2024
solver = Normal
Maximum thread count: 8
tnom = 27
temp = 27
method = modified trap
Early termination of direct N-R iteration.
Direct Newton iteration failed to find .op point.  (Use ".option noopiter" to skip.)
Starting Gmin stepping
Gmin = 10
Gmin = 1.07374
Gmin = 0.115292
Gmin = 0.0123794
Gmin = 0.00132923
Gmin = 0.000142725
Gmin = 1.5325e-05
Gmin = 1.6455e-06
vernier = 0.5
vernier = 0.25
vernier = 0.333333
Gmin = 1.03545e-06
vernier = 0.444444
Gmin = 3.99519e-07
vernier = 0.592592
vernier = 0.790123
Gmin = 8.48014e-08
vernier = 1
Gmin = 9.92087e-09
Gmin = 1.06525e-09
Gmin = 1.1438e-10
Gmin = 1.22814e-11
Gmin = 1.31871e-12
Gmin = 1.41595e-13
Gmin = 0
Gmin stepping succeeded in finding the operating point.

Total elapsed time: 0.100 seconds.

